Circuit: * C:\Users\3008h\Desktop\SEMESTER_2\Analog electronic circuits\Project\LTSPICE\Filter.asc

.OP point found by inspection.

Date: Wed Jun 21 04:20:33 2023
Total elapsed time: 0.040 seconds.

tnom = 27
temp = 27
method = modified trap
totiter = 3488
traniter = 3488
tranpoints = 1745
accept = 1357
rejected = 388
matrix size = 3
fillins = 0
solver = Normal
Matrix Compiler1:       3 opcodes  0.1/[0.0]/0.1
Matrix Compiler2:      15 opcodes  0.1/[0.1]/0.1

