Circuit: * C:\Users\3008h\Desktop\SEMESTER_2\Analog electronic circuits\Project\LTSPICE\Filter - Transient.asc

.OP point found by inspection.

Date: Tue Jun 13 00:54:08 2023
Total elapsed time: 0.007 seconds.

tnom = 27
temp = 27
method = modified trap
totiter = 3488
traniter = 3488
tranpoints = 1745
accept = 1357
rejected = 388
matrix size = 3
fillins = 0
solver = Normal
Matrix Compiler1: 50 bytes object code size  0.0/0.0/[0.0]
Matrix Compiler2: off  [0.0]/0.0/0.0

