Circuit: * C:\Users\3008h\Desktop\SEMESTER_2\Analog electronic circuits\Project\LTSPICE\Switch.asc

Ignoring BSIM parameter XL
Ignoring BSIM parameter XW
Direct Newton iteration for .op point succeeded.

Date: Wed Jun 21 12:16:14 2023
Total elapsed time: 0.271 seconds.

tnom = 27
temp = 27
method = modified trap
totiter = 11616
traniter = 11611
tranpoints = 5063
accept = 3221
rejected = 1842
matrix size = 8
fillins = 0
solver = Normal
Matrix Compiler1: 246 bytes object code size  0.1/0.1/[0.1]
Matrix Compiler2: off  [0.1]/0.1/0.2

